---- qbsp / ericw-tools v0.18.1 ----
Input file: NoahHoustonSingleplayerGreybox.map
Output file: NoahHoustonSingleplayerGreybox.bsp

---- LoadMapFile ----
*** WARNING 06: No info_player_deathmatch entities in level
         1986 faces
          331 brushes
          113 entities
           14 unique texnames
          375 texinfo

Opened WAD: ../wads/prototype_1_3.wad
Processing hull 0...
---- Brush_LoadEntity ----
          288 brushes
          292 planes
---- CSGFaces ----
         1728 brushfaces
         1590 csgfaces
         1400 mergedfaces
---- SolidBSP ----
         2069 split nodes
          821 solid leafs
         1238 empty leafs
           11 water leafs
            0 detail leafs
            0 detail illusionary leafs
            0 detail fence leafs
            0 illusionary visblocker leafs
         3760 leaffaces
         3642 nodefaces
---- Portalize ----
         1249 vis leafs
         1249 vis clusters
         3795 vis portals
---- FillOutside ----
*** WARNING 10: Reached occupant at (-400 -1920 744), no filling performed.
Leak file written to NoahHoustonSingleplayerGreybox.pts
---- MakeFaceEdges ----
---- GrowRegions ----
Processing hull 1...
*** WARNING 10: Reached occupant at (1056 -32 1488), no filling performed.
Processing hull 2...
*** WARNING 10: Reached occupant at (1056 -32 1488), no filling performed.
---- WriteBSPFile ----
Wrote NoahHoustonSingleplayerGreybox.bsp
          584 planes            11680
         4917 vertexes          59004
         2327 nodes             55848
          333 texinfo           13320
         3922 faces             78440
         3939 clipnodes         31512
         1508 leafs             42224
         4040 marksurfaces       8080
        15683 surfedges         62732
        10090 edges             40360
           17 textures         166672
              lightdata             0
              visdata               0
              entdata            8453

0.423 seconds elapsed
Peak memory usage: 19091480 (18.2M)
