---- qbsp / ericw-tools v0.18.1 ----
Input file: NoahHoustonDeadShip2.map
Output file: NoahHoustonDeadShip2.bsp

---- LoadMapFile ----
         1808 faces
          325 brushes
           61 entities
            5 unique texnames
           98 texinfo

Opened WAD: ../wads/prototype_1_3.wad
Opened WAD: ../wads/decon.wad
Processing hull 0...
---- Brush_LoadEntity ----
          322 brushes
          314 planes
---- CSGFaces ----
         1790 brushfaces
         1402 csgfaces
         1209 mergedfaces
---- SolidBSP ----
         2028 split nodes
          951 solid leafs
         1075 empty leafs
            3 water leafs
            0 detail leafs
            0 detail illusionary leafs
            0 detail fence leafs
            0 illusionary visblocker leafs
         3323 leaffaces
         3176 nodefaces
---- Portalize ----
         1078 vis leafs
         1078 vis clusters
         2464 vis portals
---- FillOutside ----
          749 outleafs
---- MergeAll ----
          807 mergefaces
---- SolidBSP ----
          565 split nodes
          350 solid leafs
          213 empty leafs
            3 water leafs
            0 detail leafs
            0 detail illusionary leafs
            0 detail fence leafs
            0 illusionary visblocker leafs
         1481 leaffaces
         1229 nodefaces
---- Portalize ----
          216 vis leafs
          216 vis clusters
          511 vis portals
---- Tjunc ----
         1258 world edges
         4312 edge points
          980 edges added by tjunctions
            0 faces added by tjunctions
---- MakeFaceEdges ----
---- GrowRegions ----
Processing hull 1...
Processing hull 2...
---- WriteBSPFile ----
Wrote NoahHoustonDeadShip2.bsp
          527 planes            10540
         1641 vertexes          19692
          583 nodes             13992
           69 texinfo            2760
         1247 faces             24940
         1404 clipnodes         11232
          235 leafs              6580
         1499 marksurfaces       2998
         5832 surfedges         23328
         2921 edges             11684
            5 textures          76384
              lightdata             0
              visdata               0
              entdata            3455

0.379 seconds elapsed
Peak memory usage: 12452562 (11.9M)
