---- qbsp / ericw-tools v0.18.1 ----
Input file: NoahHoustonDeadShip.map
Output file: NoahHoustonDeadShip.bsp

---- LoadMapFile ----
         1780 faces
          320 brushes
           91 entities
            5 unique texnames
           98 texinfo

Opened WAD: ../wads/prototype_1_3.wad
Processing hull 0...
---- Brush_LoadEntity ----
          317 brushes
          314 planes
---- CSGFaces ----
         1762 brushfaces
         1488 csgfaces
         1252 mergedfaces
---- SolidBSP ----
         2078 split nodes
          973 solid leafs
         1103 empty leafs
            3 water leafs
            0 detail leafs
            0 detail illusionary leafs
            0 detail fence leafs
            0 illusionary visblocker leafs
         3427 leaffaces
         3275 nodefaces
---- Portalize ----
         1106 vis leafs
         1106 vis clusters
         2543 vis portals
---- FillOutside ----
          766 outleafs
---- MergeAll ----
          812 mergefaces
---- SolidBSP ----
          556 split nodes
          335 solid leafs
          219 empty leafs
            3 water leafs
            0 detail leafs
            0 detail illusionary leafs
            0 detail fence leafs
            0 illusionary visblocker leafs
         1537 leaffaces
         1232 nodefaces
---- Portalize ----
          222 vis leafs
          222 vis clusters
          516 vis portals
---- Tjunc ----
         1261 world edges
         4337 edge points
         1004 edges added by tjunctions
            0 faces added by tjunctions
---- MakeFaceEdges ----
---- GrowRegions ----
Processing hull 1...
Processing hull 2...
---- WriteBSPFile ----
Wrote NoahHoustonDeadShip.bsp
          527 planes            10540
         1655 vertexes          19860
          574 nodes             13776
           69 texinfo            2760
         1250 faces             25000
         1424 clipnodes         11392
          241 leafs              6748
         1555 marksurfaces       3110
         5868 surfedges         23472
         2937 edges             11748
            5 textures          76384
              lightdata             0
              visdata               0
              entdata            5201

0.375 seconds elapsed
Peak memory usage: 12621906 (12.0M)
