---- qbsp / ericw-tools v0.18.1 ----
Input file: NoahHoustonSingleplayerGreybox.map
Output file: NoahHoustonSingleplayerGreybox.bsp

---- LoadMapFile ----
*** WARNING 06: No info_player_deathmatch entities in level
         1386 faces
          231 brushes
           69 entities
           11 unique texnames
          275 texinfo

Opened WAD: ../wads/prototype_1_3.wad
Processing hull 0...
---- Brush_LoadEntity ----
          204 brushes
          221 planes
---- CSGFaces ----
         1224 brushfaces
         1122 csgfaces
          979 mergedfaces
---- SolidBSP ----
         1501 split nodes
          600 solid leafs
          893 empty leafs
            9 water leafs
            0 detail leafs
            0 detail illusionary leafs
            0 detail fence leafs
            0 illusionary visblocker leafs
         2817 leaffaces
         2738 nodefaces
---- Portalize ----
          902 vis leafs
          902 vis clusters
         2532 vis portals
---- FillOutside ----
*** WARNING 10: Reached occupant at (-1632 -1376 -80), no filling performed.
Leak file written to NoahHoustonSingleplayerGreybox.pts
---- MakeFaceEdges ----
---- GrowRegions ----
Processing hull 1...
Processing hull 2...
---- WriteBSPFile ----
Wrote NoahHoustonSingleplayerGreybox.bsp
          428 planes             8560
         3646 vertexes          43752
         1663 nodes             39912
          232 texinfo            9280
         2912 faces             58240
         1144 clipnodes          9152
         1065 leafs             29820
         2991 marksurfaces       5982
        11643 surfedges         46572
         7496 edges             29984
           13 textures         140656
              lightdata             0
              visdata               0
              entdata            5326

0.327 seconds elapsed
Peak memory usage: 13041862 (12.4M)
