---- qbsp / ericw-tools v0.18.1 ----
Input file: NoHouWIPGreybox.map
Output file: NoHouWIPGreybox.bsp

---- LoadMapFile ----
         1784 faces
          321 brushes
           91 entities
            5 unique texnames
           98 texinfo

Opened WAD: ../wads/prototype_1_3.wad
Processing hull 0...
---- Brush_LoadEntity ----
          318 brushes
          317 planes
---- CSGFaces ----
         1766 brushfaces
         1496 csgfaces
         1261 mergedfaces
---- SolidBSP ----
         2083 split nodes
          975 solid leafs
         1106 empty leafs
            3 water leafs
            0 detail leafs
            0 detail illusionary leafs
            0 detail fence leafs
            0 illusionary visblocker leafs
         3443 leaffaces
         3286 nodefaces
---- Portalize ----
         1109 vis leafs
         1109 vis clusters
         2549 vis portals
---- FillOutside ----
          766 outleafs
---- MergeAll ----
          816 mergefaces
---- SolidBSP ----
          558 split nodes
          334 solid leafs
          222 empty leafs
            3 water leafs
            0 detail leafs
            0 detail illusionary leafs
            0 detail fence leafs
            0 illusionary visblocker leafs
         1559 leaffaces
         1237 nodefaces
---- Portalize ----
          225 vis leafs
          225 vis clusters
          525 vis portals
---- Tjunc ----
         1264 world edges
         4351 edge points
         1003 edges added by tjunctions
            0 faces added by tjunctions
---- MakeFaceEdges ----
---- GrowRegions ----
Processing hull 1...
Processing hull 2...
---- WriteBSPFile ----
Wrote NoHouWIPGreybox.bsp
          534 planes            10680
         1659 vertexes          19908
          576 nodes             13824
           70 texinfo            2800
         1255 faces             25100
         1451 clipnodes         11608
          244 leafs              6832
         1577 marksurfaces       3154
         5884 surfedges         23536
         2945 edges             11780
            5 textures          76384
              lightdata             0
              visdata               0
              entdata            5201

0.397 seconds elapsed
Peak memory usage: 12765330 (12.2M)
