---- qbsp / ericw-tools v0.18.1 ----
Input file: testmap.map
Output file: testmap.bsp

---- LoadMapFile ----
*** WARNING 06: No info_player_deathmatch entities in level
           48 faces
            8 brushes
            8 entities
            4 unique texnames
           32 texinfo

Opened WAD: ../wads/id1.wad
Processing hull 0...
---- Brush_LoadEntity ----
            8 brushes
           20 planes
---- CSGFaces ----
           48 brushfaces
           53 csgfaces
           48 mergedfaces
---- SolidBSP ----
           78 split nodes
           26 solid leafs
           53 empty leafs
            0 water leafs
            0 detail leafs
            0 detail illusionary leafs
            0 detail fence leafs
            0 illusionary visblocker leafs
          214 leaffaces
          209 nodefaces
---- Portalize ----
           53 vis leafs
           53 vis clusters
          118 vis portals
---- FillOutside ----
           47 outleafs
---- MergeAll ----
           23 mergefaces
---- SolidBSP ----
           16 split nodes
           11 solid leafs
            6 empty leafs
            0 water leafs
            0 detail leafs
            0 detail illusionary leafs
            0 detail fence leafs
            0 illusionary visblocker leafs
           79 leaffaces
           63 nodefaces
---- Portalize ----
            6 vis leafs
            6 vis clusters
            7 vis portals
---- Tjunc ----
           56 world edges
          216 edge points
           58 edges added by tjunctions
            0 faces added by tjunctions
---- MakeFaceEdges ----
---- GrowRegions ----
Processing hull 1...
Processing hull 2...
---- WriteBSPFile ----
Wrote testmap.bsp
           33 planes              660
           90 vertexes           1080
           16 nodes               384
           10 texinfo             400
           63 faces              1260
           37 clipnodes           296
            7 leafs               196
           79 marksurfaces        158
          310 surfedges          1240
          156 edges               624
            4 textures          21940
              lightdata             0
              visdata               0
              entdata             514

0.036 seconds elapsed
Peak memory usage: 632442 (0.6M)
